/*--------------------------------*- C++ -*----------------------------------*\
| =========                 |                                                 |
| \\      /  F ield         | OpenFOAM: The Open Source CFD Toolbox           |
|  \\    /   O peration     | Version:  v2306                                 |
|   \\  /    A nd           | Website:  www.openfoam.com                      |
|    \\/     M anipulation  |                                                 |
\*---------------------------------------------------------------------------*/
FoamFile
{
    version     2.0;
    format      ascii;
    class       dictionary;
    object      blockMeshDict;
}
// * * * * * * * * * * * * * * * * * * * * * * * * * * * * * * * * * * * * * //

scale   0.01;

HAR 1;
GH 1.68;

vertices
(
    (0 0 0)     // 0
    (1 0 0)     // 1
    (1 -$GH 0)   // 2
    (4 -$GH 0)   // 3
    (4 0 0)     // 4
    (5 0 0)     // 5
    (5 2 0)     // 6
    (4 2 0)     // 7
    (1 2 0)     // 8
    (0 2 0)     // 9

    (0 0 $HAR)     // 10
    (1 0 $HAR)     // 11
    (1 -$GH $HAR)   // 12
    (4 -$GH $HAR)   // 13
    (4 0 $HAR)     // 14
    (5 0 $HAR)     // 15
    (5 2 $HAR)     // 16
    (4 2 $HAR)     // 17
    (1 2 $HAR)     // 18
    (0 2 $HAR)     // 19
);

blocks
(
    hex (0 1 8 9  10  11 18 19) (15 45 1) edgeGrading (.1 1 1 .1
                                                       ((.5 .5 10)(.5 .5 .1)) ((.5 .5 10)(.5 .5 .1)) ((.5 .5 10)(.5 .5 .1)) ((.5 .5 10)(.5 .5 .1))
                                                      1 1 1 1 )     // 1
    hex (1 4  7  8 11 14 17 18) (45 45 1) edgeGrading (((.5 .5 10)(.5 .5 .1)) 1 1 ((.5 .5 10)(.5 .5 .1))
                                                       ((.5 .5 10)(.5 .5 .1)) ((.5 .5 10)(.5 .5 .1)) ((.5 .5 10)(.5 .5 .1)) ((.5 .5 10)(.5 .5 .1))
                                                       1 1 1 1)     // 2
    hex (2 3 4  1  12 13 14 11) (45 48 1) edgeGrading (1 ((.5 .5 10)(.5 .5 .1)) ((.5 .5 10)(.5 .5 .1)) 1  
                                                        .1 .1 .1 .1   
                                                        1 1 1 1)     // 3
    hex (4 5 6 7 14 15  16  17) (15 45 1) edgeGrading (10 1 1 10 
                                                        ((.5 .5 10)(.5 .5 .1)) ((.5 .5 10)(.5 .5 .1)) ((.5 .5 10)(.5 .5 .1)) ((.5 .5 10)(.5 .5 .1))
                                                        1 1 1 1)     // 4


);

edges
(
);

boundary
(
    inlet
    {
        type              cyclic;
        neighbourPatch    outlet;
        matchTolerance    1e-9;
        faces
        (
            (0 10 19 9)
        );
    }
    outlet
    {
        type              cyclic;
        neighbourPatch    inlet;
        matchTolerance    1e-9;
        faces
        (
            (5 6 16 15)
        );
    }
    Walls
    {
        type wall;
        faces
        (
            (0 1 11 10)
            (1 2 12 11)
            (2 3 13 12)
            (3 4 14 13)
            (4 5 15 14)
            (6 7 17 16)
            (7 8 18 17)
            (8 9 19 18) 
        );
    }
    back
    {
        type empty;
        faces
        (
            (0 9 8 1)
            (1 8 7 4)
            (2 1 4 3)
            (4 7 6 5)
        );
    }
    front
    {
        type empty;
        faces
        (
            (10 19 18 11)
            (11 18 17 14)
            (12 11 14 13)
            (14 17 16 15)
        );
    }
);


// ************************************************************************* //
