/*--------------------------------*- C++ -*----------------------------------*\
| =========                 |                                                 |
| \\      /  F ield         | OpenFOAM: The Open Source CFD Toolbox           |
|  \\    /   O peration     | Version:  v2306                                 |
|   \\  /    A nd           | Website:  www.openfoam.com                      |
|    \\/     M anipulation  |                                                 |
\*---------------------------------------------------------------------------*/
FoamFile
{
    version     2.0;
    format      ascii;
    class       dictionary;
    object      fvSchemes;
}
// * * * * * * * * * * * * * * * * * * * * * * * * * * * * * * * * * * * * * //

ddtSchemes
{
    // Most Stable:
    // default         Euler;

    // Mid Stable, Mid Accurate:
    // default         CrankNicolson 0.9;

    // Most Accurate:
    default         backward;
}

gradSchemes
{
    // Most Stable:
    // default         Gauss linear;

    // Most Accurate:
    default         leastSquares;
}

divSchemes
{
    default         none;
    // Most Stable:
    // div(phi,U)      Gauss upwind;

    // Mid Stable, Mid Accurate:
    // div(phi,U)      Gauss limitedLinearV 1;

    // Most Accurate:
    div(phi,U)      Gauss linear;
}

laplacianSchemes
{
    // default         Gause <interpolation> <SnGrad>
    default         Gauss linear corrected;
}

interpolationSchemes
{
    default         linear;
}

snGradSchemes
{
    default         corrected;
}


// ************************************************************************* //
