/*--------------------------------*- C++ -*----------------------------------*\
| =========                 |                                                 |
| \\      /  F ield         | OpenFOAM: The Open Source CFD Toolbox           |
|  \\    /   O peration     | Version:  2312                                  |
|   \\  /    A nd           | Website:  www.openfoam.com                      |
|    \\/     M anipulation  |                                                 |
\*---------------------------------------------------------------------------*/
FoamFile
{
    version     2.0;
    format      ascii;
    arch        "LSB;label=32;scalar=64";
    class       polyBoundaryMesh;
    location    "constant/polyMesh";
    object      boundary;
}
// * * * * * * * * * * * * * * * * * * * * * * * * * * * * * * * * * * * * * //

5
(
    inlet
    {
        type            cyclic;
        inGroups        1(cyclic);
        nFaces          45;
        startFace       10902;
        matchTolerance  1e-09;
        transform       unknown;
        neighbourPatch  outlet;
    }
    outlet
    {
        type            cyclic;
        inGroups        1(cyclic);
        nFaces          45;
        startFace       10947;
        matchTolerance  1e-09;
        transform       unknown;
        neighbourPatch  inlet;
    }
    Walls
    {
        type            wall;
        inGroups        1(wall);
        nFaces          246;
        startFace       10992;
    }
    back
    {
        type            empty;
        inGroups        1(empty);
        nFaces          5535;
        startFace       11238;
    }
    front
    {
        type            empty;
        inGroups        1(empty);
        nFaces          5535;
        startFace       16773;
    }
)

// ************************************************************************* //
